<routes>
<vType accel="1.0" decel="5.0" id="Car" length="2.0" maxSpeed="1.0" sigma="0.0"/>
<vType accel="1.0" decel="5.0" id="Bus" length="12.0" maxSpeed="1.0" sigma="0.0"/>


<route id="route0" edges="1to2 2to3" />
<route id="route1" edges="2to3"/>
<route id="route2" edges="1to2 2to4"/>
<route id="route3" edges="4to3"/>

<vehicle depart="4" id="veh0" route="route0" departLane='best' type="Car"/>
<vehicle depart="4" id="veh1" route="route0" departLane="best" type="Car"/>
<vehicle depart="6" id="veh2" route="route0" departLane="best" type="Car"/>
<vehicle id="veh3" depart="6" type="Car" route="route1">
    <stop parkingArea="pa0" duration="100"/>
</vehicle>
<vehicle depart="6" id="theCar" route="route2" departLane="2" color="1,0,0" type="Car"/>
<vehicle depart="7" id="veh5" route="route0" departLane="best" type="Car"/>
<vehicle depart="10" id="veh6" route="route0" departLane="best" type="Car"/>
<vehicle depart="20" id="veh4" route="route2" departLane="best"  type="Car"/>

</routes>
