<configuration>
<input>
    <net-file value="hello.net.xml" />
    <route-files value="hello.rou.xml" />
    <additional-files value="hello.add.xml"/>
</input>
    <time>
    <begin value="0" />
    <end value="2000" />
    </time>
</configuration>

